@<TRIPOS>MOLECULE
SUD
   27    28     1     0     0
SMALL
No Charge or Current Charge


@<TRIPOS>ATOM
      1 N1           4.3250     2.0870     0.3250 nv         1 SUD       0.000000
      2 C1           3.2690     1.1840     0.1790 ca         1 SUD       0.000000
      3 C2           3.1790     0.0770     1.0130 ca         1 SUD       0.000000
      4 C3           2.1330    -0.8130     0.8660 ca         1 SUD       0.000000
      5 C4           1.1770    -0.6040    -0.1110 ca         1 SUD       0.000000
      6 C5           1.2640     0.4970    -0.9430 ca         1 SUD       0.000000
      7 C6           2.3040     1.3940    -0.7980 ca         1 SUD       0.000000
      8 S1          -0.1550    -1.7420    -0.2950 s6         1 SUD       0.000000
      9 O1          -0.6190    -1.5810    -1.6290 o          1 SUD       0.000000
     10 O2           0.2980    -2.9620     0.2760 o          1 SUD       0.000000
     11 N2          -1.3900    -1.2210     0.6770 nu         1 SUD       0.000000
     12 C7          -2.0180    -0.0160     0.4120 c2         1 SUD       0.000000
     13 N3          -3.1780     0.2500     0.9930 n2         1 SUD       0.000000
     14 C8          -3.8040     1.3920     0.7620 c2         1 SUD       0.000000
     15 C9          -3.2320     2.3140    -0.1000 c2         1 SUD       0.000000
     16 C10         -2.0170     2.0040    -0.6920 c2         1 SUD       0.000000
     17 N4          -1.4410     0.8460    -0.4130 n2         1 SUD       0.000000
     18 H1           4.9960     1.9410     1.0100 hn         1 SUD       0.000000
     19 H2           4.3890     2.8570    -0.2610 hn         1 SUD       0.000000
     20 H3           3.9260    -0.0870     1.7760 ha         1 SUD       0.000000
     21 H4           2.0630    -1.6740     1.5140 ha         1 SUD       0.000000
     22 H5           0.5150     0.6580    -1.7050 ha         1 SUD       0.000000
     23 H6           2.3710     2.2540    -1.4480 ha         1 SUD       0.000000
     24 H7          -1.6740    -1.7600     1.4310 hn         1 SUD       0.000000
     25 H8          -4.7500     1.6040     1.2380 h4         1 SUD       0.000000
     26 H9          -3.7220     3.2540    -0.3070 ha         1 SUD       0.000000
     27 H10         -1.5450     2.7000    -1.3680 h4         1 SUD       0.000000
@<TRIPOS>BOND
     1     1     2 1   
     2     1    18 1   
     3     1    19 1   
     4     2     3 1   
     5     2     7 1   
     6     3     4 1   
     7     3    20 1   
     8     4     5 1   
     9     4    21 1   
    10     5     6 1   
    11     5     8 1   
    12     6     7 1   
    13     6    22 1   
    14     7    23 1   
    15     8     9 1   
    16     8    10 1   
    17     8    11 1   
    18    11    12 1   
    19    11    24 1   
    20    12    13 1   
    21    12    17 1   
    22    13    14 1   
    23    14    15 1   
    24    14    25 1   
    25    15    16 1   
    26    15    26 1   
    27    16    17 1   
    28    16    27 1   
@<TRIPOS>SUBSTRUCTURE
     1 SUD         1 TEMP              0 ****  ****    0 ROOT
