@<TRIPOS>MOLECULE
SUR
   30    31     1     0     0
SMALL
No Charge or Current Charge


@<TRIPOS>ATOM
      1 C1           5.0680    -1.1160     0.9680 c3         1 SUR       0.000000
      2 C2           3.6830    -0.9370     0.4000 c2         1 SUR       0.000000
      3 N1           2.9560     0.1170     0.7300 n2         1 SUR       0.000000
      4 C3           1.7380     0.2810     0.2340 c2         1 SUR       0.000000
      5 N2           1.2060    -0.5960    -0.6040 n2         1 SUR       0.000000
      6 C4           1.8800    -1.6720    -0.9750 c2         1 SUR       0.000000
      7 C5           3.1590    -1.8710    -0.4800 c2         1 SUR       0.000000
      8 N3           1.0040     1.3960     0.6010 nu         1 SUR       0.000000
      9 S1          -0.3420     1.8240    -0.2650 s6         1 SUR       0.000000
     10 O1          -0.8840     2.9570     0.3980 o          1 SUR       0.000000
     11 O2           0.0480     1.7780    -1.6310 o          1 SUR       0.000000
     12 C6          -1.5290     0.5380    -0.0630 ca         1 SUR       0.000000
     13 C7          -2.4360     0.5940     0.9790 ca         1 SUR       0.000000
     14 C8          -3.3680    -0.4120     1.1410 ca         1 SUR       0.000000
     15 C9          -3.3940    -1.4810     0.2550 ca         1 SUR       0.000000
     16 C10         -2.4810    -1.5350    -0.7910 ca         1 SUR       0.000000
     17 C11         -1.5560    -0.5230    -0.9500 ca         1 SUR       0.000000
     18 N4          -4.3350    -2.5010     0.4150 nv         1 SUR       0.000000
     19 H1           5.0080    -1.6790     1.8990 hc         1 SUR       0.000000
     20 H2           5.6860    -1.6590     0.2530 hc         1 SUR       0.000000
     21 H3           5.5100    -0.1390     1.1620 hc         1 SUR       0.000000
     22 H4           1.4410    -2.3840    -1.6580 h4         1 SUR       0.000000
     23 H5           3.7320    -2.7410    -0.7670 ha         1 SUR       0.000000
     24 H6           1.2770     1.9270     1.3660 hn         1 SUR       0.000000
     25 H7          -2.4160     1.4260     1.6680 ha         1 SUR       0.000000
     26 H8          -4.0760    -0.3670     1.9550 ha         1 SUR       0.000000
     27 H9          -2.4990    -2.3650    -1.4820 ha         1 SUR       0.000000
     28 H10         -0.8460    -0.5640    -1.7630 ha         1 SUR       0.000000
     29 H11         -4.9720    -2.4630     1.1460 hn         1 SUR       0.000000
     30 H12         -4.3520    -3.2470    -0.2040 hn         1 SUR       0.000000
@<TRIPOS>BOND
     1     1     2 1   
     2     1    19 1   
     3     1    20 1   
     4     1    21 1   
     5     2     3 1   
     6     2     7 1   
     7     3     4 1   
     8     4     5 1   
     9     4     8 1   
    10     5     6 1   
    11     6     7 1   
    12     6    22 1   
    13     7    23 1   
    14     8     9 1   
    15     8    24 1   
    16     9    10 1   
    17     9    11 1   
    18     9    12 1   
    19    12    13 1   
    20    12    17 1   
    21    13    14 1   
    22    13    25 1   
    23    14    15 1   
    24    14    26 1   
    25    15    16 1   
    26    15    18 1   
    27    16    17 1   
    28    16    27 1   
    29    17    28 1   
    30    18    29 1   
    31    18    30 1   
@<TRIPOS>SUBSTRUCTURE
     1 SUR         1 TEMP              0 ****  ****    0 ROOT
