@<TRIPOS>MOLECULE
TOL
   15    15     1     0     0
SMALL
No Charge or Current Charge


@<TRIPOS>ATOM
      1 C1          20.0000    21.2000    19.9900 ca         1 TOL       0.000000
      2 C2          20.7200    20.0000    19.9900 ca         1 TOL       0.000000
      3 C3          20.0000    18.8000    19.9900 ca         1 TOL       0.000000
      4 C4          18.6100    18.8000    20.0000 ca         1 TOL       0.000000
      5 C5          17.9100    20.0000    20.0100 ca         1 TOL       0.000000
      6 C6          18.6100    21.2000    20.0000 ca         1 TOL       0.000000
      7 C7          22.2300    20.0000    20.0100 c3         1 TOL       0.000000
      8 H1          22.6300    19.1200    19.5100 hc         1 TOL       0.000000
      9 H2          22.6300    20.8800    19.5100 hc         1 TOL       0.000000
     10 H3          22.6100    20.0000    21.0300 hc         1 TOL       0.000000
     11 H4          20.5400    17.8600    19.9800 ha         1 TOL       0.000000
     12 H5          18.0800    17.8600    20.0000 ha         1 TOL       0.000000
     13 H6          16.8300    20.0000    20.0200 ha         1 TOL       0.000000
     14 H7          18.0800    22.1400    20.0000 ha         1 TOL       0.000000
     15 H8          20.5400    22.1400    19.9800 ha         1 TOL       0.000000
@<TRIPOS>BOND
     1     1     2 1   
     2     1     6 1   
     3     1    15 1   
     4     2     3 1   
     5     2     7 1   
     6     3     4 1   
     7     3    11 1   
     8     4     5 1   
     9     4    12 1   
    10     5     6 1   
    11     5    13 1   
    12     6    14 1   
    13     7     8 1   
    14     7     9 1   
    15     7    10 1   
@<TRIPOS>SUBSTRUCTURE
     1 TOL         1 TEMP              0 ****  ****    0 ROOT
