@<TRIPOS>MOLECULE
BNL
   15    14     1     0     0
SMALL
No Charge or Current Charge


@<TRIPOS>ATOM
      1 C1          17.8100    19.6300    20.0000 c3         1 BNL       0.000000
      2 H1          16.9300    20.2700    20.0000 hc         1 BNL       0.000000
      3 H2          17.7600    18.9800    19.1200 hc         1 BNL       0.000000
      4 H3          17.7600    18.9800    20.8800 hc         1 BNL       0.000000
      5 C2          19.1000    20.4500    20.0000 c3         1 BNL       0.000000
      6 H4          19.1100    21.1000    20.8700 hc         1 BNL       0.000000
      7 H5          19.1100    21.1000    19.1200 hc         1 BNL       0.000000
      8 C3          20.3600    19.5800    20.0000 c3         1 BNL       0.000000
      9 H6          20.3700    18.9300    19.1200 hc         1 BNL       0.000000
     10 H7          20.3700    18.9300    20.8800 hc         1 BNL       0.000000
     11 C4          21.6400    20.4000    20.0000 c3         1 BNL       0.000000
     12 H8          21.6800    21.0400    20.8900 h1         1 BNL       0.000000
     13 H9          21.6800    21.0400    19.1100 h1         1 BNL       0.000000
     14 O1          22.7500    19.5000    20.0000 oh         1 BNL       0.000000
     15 H10         23.5700    20.0000    20.0000 ho         1 BNL       0.000000
@<TRIPOS>BOND
     1     1     2 1   
     2     1     3 1   
     3     1     4 1   
     4     1     5 1   
     5     5     6 1   
     6     5     7 1   
     7     5     8 1   
     8     8     9 1   
     9     8    10 1   
    10     8    11 1   
    11    11    12 1   
    12    11    13 1   
    13    11    14 1   
    14    14    15 1   
@<TRIPOS>SUBSTRUCTURE
     1 BNL         1 TEMP              0 ****  ****    0 ROOT
