@<TRIPOS>MOLECULE
CCD
   76    81     1     0     0
SMALL
No Charge or Current Charge


@<TRIPOS>ATOM
      1 S1          -1.5840    -5.2200     1.9190 ss         1 CCD       0.000000
      2 F1          -4.6180     0.2200    -2.8900 f          1 CCD       0.000000
      3 F2          -4.4510    -1.8000    -3.6770 f          1 CCD       0.000000
      4 O1          11.1140    -0.3080    -0.5960 os         1 CCD       0.000000
      5 O2           2.4420     0.2850     1.6040 o          1 CCD       0.000000
      6 O3          -2.9750    -1.0920    -2.1130 os         1 CCD       0.000000
      7 O4          -2.5420     3.4940     0.2300 o          1 CCD       0.000000
      8 N1           8.3310     0.0930    -0.1550 n3         1 CCD       0.000000
      9 N2           4.3360     1.2230     0.6400 n          1 CCD       0.000000
     10 N3           0.7650     0.7410    -0.4070 na         1 CCD       0.000000
     11 N4           0.4420    -0.5620    -0.4630 n2         1 CCD       0.000000
     12 N5          -2.6910     1.1440     0.1320 ns         1 CCD       0.000000
     13 N6          -6.8150     2.1010     0.7470 na         1 CCD       0.000000
     14 N7          -6.7390     3.4560     0.8160 n2         1 CCD       0.000000
     15 N8          -5.3970     0.1790     0.4420 n2         1 CCD       0.000000
     16 C1           7.1900     0.8960     0.2800 c6         1 CCD       0.000000
     17 C2           6.4330     0.1720     1.4000 c6         1 CCD       0.000000
     18 C3           6.2580     1.1730    -0.9060 c6         1 CCD       0.000000
     19 C4           5.1820     0.9500     1.8040 c6         1 CCD       0.000000
     20 C5           5.0090     1.9310    -0.4570 c6         1 CCD       0.000000
     21 C6           9.0350     0.7450    -1.2680 c6         1 CCD       0.000000
     22 C7           9.2590    -0.1420     0.9600 c6         1 CCD       0.000000
     23 C8          10.2270    -0.1050    -1.6960 c6         1 CCD       0.000000
     24 C9          10.4470    -0.9710     0.4790 c6         1 CCD       0.000000
     25 C10          2.9930     0.8480     0.6540 c2         1 CCD       0.000000
     26 C11          2.1910     1.1610    -0.5830 c3         1 CCD       0.000000
     27 C12         -0.3000     1.5640    -0.1860 c2         1 CCD       0.000000
     28 C13         -1.3960     0.7420    -0.0900 c2         1 CCD       0.000000
     29 C14         -0.8800    -0.5550    -0.2690 c2         1 CCD       0.000000
     30 C15         -1.6160    -1.7950    -0.2590 ca         1 CCD       0.000000
     31 C16         -2.6380    -2.0260    -1.1790 ca         1 CCD       0.000000
     32 C17         -1.2940    -2.7690     0.6860 ca         1 CCD       0.000000
     33 C18         -3.1960     2.4580     0.2780 c2         1 CCD       0.000000
     34 C19         -1.9950    -3.9750     0.7110 ca         1 CCD       0.000000
     35 C20         -3.3390    -3.2320    -1.1540 ca         1 CCD       0.000000
     36 C21         -4.6640     2.5740     0.4830 c2         1 CCD       0.000000
     37 C22         -3.0170    -4.2060    -0.2090 ca         1 CCD       0.000000
     38 C23         -5.5580     1.5300     0.5430 c2         1 CCD       0.000000
     39 C24         -5.4440     3.7250     0.6570 c2         1 CCD       0.000000
     40 C25         -4.3280    -1.0620    -2.5470 c3         1 CCD       0.000000
     41 C26         -7.9530     1.3060     0.8550 c2         1 CCD       0.000000
     42 C27         -1.8840    -4.3360     3.4750 c3         1 CCD       0.000000
     43 C28         -7.8580    -0.0240     0.7640 c2         1 CCD       0.000000
     44 C29         -6.4790    -0.5310     0.5470 c2         1 CCD       0.000000
     45 H1           7.5400     1.8630     0.6700 h1         1 CCD       0.000000
     46 H2           6.1420    -0.8350     1.0710 hc         1 CCD       0.000000
     47 H3           7.0330     0.0650     2.3090 hc         1 CCD       0.000000
     48 H4           6.7280     1.8000    -1.6690 hc         1 CCD       0.000000
     49 H5           5.9560     0.2300    -1.3820 hc         1 CCD       0.000000
     50 H6           4.6280     0.3900     2.5640 h1         1 CCD       0.000000
     51 H7           5.4550     1.9170     2.2430 h1         1 CCD       0.000000
     52 H8           5.2780     2.9260    -0.0820 h1         1 CCD       0.000000
     53 H9           4.3470     2.0770    -1.3130 h1         1 CCD       0.000000
     54 H10          8.4110     0.8370    -2.1610 h1         1 CCD       0.000000
     55 H11          9.3810     1.7450    -0.9740 h1         1 CCD       0.000000
     56 H12          9.6190     0.8110     1.3690 h1         1 CCD       0.000000
     57 H13          8.8030    -0.7190     1.7680 h1         1 CCD       0.000000
     58 H14          9.9090    -1.0770    -2.0940 h1         1 CCD       0.000000
     59 H15         10.7880     0.4070    -2.4850 h1         1 CCD       0.000000
     60 H16         11.1690    -1.0950     1.2920 h1         1 CCD       0.000000
     61 H17         10.1380    -1.9720     0.1550 h1         1 CCD       0.000000
     62 H18          2.5640     0.6090    -1.4510 h1         1 CCD       0.000000
     63 H19          2.1720     2.2370    -0.7780 h1         1 CCD       0.000000
     64 H20         -0.1750     2.6360    -0.1180 h4         1 CCD       0.000000
     65 H21         -3.3560     0.3780     0.1840 hn         1 CCD       0.000000
     66 H22         -0.4930    -2.5870     1.4010 ha         1 CCD       0.000000
     67 H23         -4.1220    -3.4680    -1.8680 ha         1 CCD       0.000000
     68 H24         -3.5700    -5.1430    -0.2080 ha         1 CCD       0.000000
     69 H25         -5.1260     4.7580     0.6750 h4         1 CCD       0.000000
     70 H26         -5.0600    -1.3850    -1.8010 h3         1 CCD       0.000000
     71 H27         -8.8980     1.8120     1.0120 h4         1 CCD       0.000000
     72 H28         -1.7580    -5.0300     4.3110 h1         1 CCD       0.000000
     73 H29         -1.1740    -3.5140     3.5980 h1         1 CCD       0.000000
     74 H30         -2.9040    -3.9430     3.4990 h1         1 CCD       0.000000
     75 H31         -8.6930    -0.7050     0.8380 ha         1 CCD       0.000000
     76 H32         -6.3970    -1.6280     0.4730 h4         1 CCD       0.000000
@<TRIPOS>BOND
     1     1    34 1   
     2     1    42 1   
     3     2    40 1   
     4     3    40 1   
     5     4    23 1   
     6     4    24 1   
     7     5    25 1   
     8     6    31 1   
     9     6    40 1   
    10     7    33 1   
    11     8    16 1   
    12     8    21 1   
    13     8    22 1   
    14     9    19 1   
    15     9    20 1   
    16     9    25 1   
    17    10    11 1   
    18    10    26 1   
    19    10    27 1   
    20    11    29 1   
    21    12    28 1   
    22    12    33 1   
    23    12    65 1   
    24    13    14 1   
    25    13    38 1   
    26    13    41 1   
    27    14    39 1   
    28    15    38 1   
    29    15    44 1   
    30    16    17 1   
    31    16    18 1   
    32    16    45 1   
    33    17    19 1   
    34    17    46 1   
    35    17    47 1   
    36    18    20 1   
    37    18    48 1   
    38    18    49 1   
    39    19    50 1   
    40    19    51 1   
    41    20    52 1   
    42    20    53 1   
    43    21    23 1   
    44    21    54 1   
    45    21    55 1   
    46    22    24 1   
    47    22    56 1   
    48    22    57 1   
    49    23    58 1   
    50    23    59 1   
    51    24    60 1   
    52    24    61 1   
    53    25    26 1   
    54    26    62 1   
    55    26    63 1   
    56    27    28 1   
    57    27    64 1   
    58    28    29 1   
    59    29    30 1   
    60    30    31 1   
    61    30    32 1   
    62    31    35 1   
    63    32    34 1   
    64    32    66 1   
    65    33    36 1   
    66    34    37 1   
    67    35    37 1   
    68    35    67 1   
    69    36    38 1   
    70    36    39 1   
    71    37    68 1   
    72    39    69 1   
    73    40    70 1   
    74    41    43 1   
    75    41    71 1   
    76    42    72 1   
    77    42    73 1   
    78    42    74 1   
    79    43    44 1   
    80    43    75 1   
    81    44    76 1   
@<TRIPOS>SUBSTRUCTURE
     1 CCD         1 TEMP              0 ****  ****    0 ROOT
