@<TRIPOS>MOLECULE
ANT
    6     5     1     0     0
SMALL
No Charge or Current Charge


@<TRIPOS>ATOM
      1 C1          20.0000    20.0000    19.5200 c3         1 ANT       0.000000
      2 H1          19.7300    20.9900    19.1400 hc         1 ANT       0.000000
      3 H2          20.9900    19.7400    19.1400 hc         1 ANT       0.000000
      4 H3          19.2800    19.2800    19.1400 hc         1 ANT       0.000000
      5 C2          20.0000    20.0000    20.9700 c1         1 ANT       0.000000
      6 N1          20.0000    20.0000    22.1200 n1         1 ANT       0.000000
@<TRIPOS>BOND
     1     1     2 1   
     2     1     3 1   
     3     1     4 1   
     4     1     5 1   
     5     5     6 1   
@<TRIPOS>SUBSTRUCTURE
     1 ANT         1 TEMP              0 ****  ****    0 ROOT
