@<TRIPOS>MOLECULE
OLA
  168   180     1     0     0
SMALL
No Charge or Current Charge


@<TRIPOS>ATOM
      1 H00          4.1990    12.9880     9.0640 ha         1 OLA       0.000000
      2 C01          3.9280    13.0350     8.1590 ca         1 OLA       0.000000
      3 C02          3.1100    14.0540     7.7390 ca         1 OLA       0.000000
      4 C03          4.1710    11.9380     7.3140 ca         1 OLA       0.000000
      5 H04          2.8640    14.7490     8.3390 ha         1 OLA       0.000000
      6 C05          2.6950    14.0910     6.4260 ca         1 OLA       0.000000
      7 H06          4.5340    11.1510     7.6890 ha         1 OLA       0.000000
      8 C07          3.6680    11.8840     6.0140 ca         1 OLA       0.000000
      9 H08          2.3810    14.9040     6.0760 ha         1 OLA       0.000000
     10 C09          2.8870    12.9870     5.5690 ca         1 OLA       0.000000
     11 N0A          3.7560    10.6220     5.3420 n2         1 OLA       0.000000
     12 N0B          2.2610    12.9140     4.2860 na         1 OLA       0.000000
     13 C0C          3.9860    10.4790     4.0660 c2         1 OLA       0.000000
     14 H0D          1.3180    12.9730     4.1880 hn         1 OLA       0.000000
     15 C0E          3.0730    12.6490     3.1740 c2         1 OLA       0.000000
     16 C0F          3.8850    11.5410     3.0130 c2         1 OLA       0.000000
     17 N0G          4.2050     9.1520     3.5680 nh         1 OLA       0.000000
     18 S0H          3.2810    13.7980     1.8690 ss         1 OLA       0.000000
     19 C0I          4.6790    11.6480     1.8130 c2         1 OLA       0.000000
     20 C0J          4.2900     8.0620     4.5220 c6         1 OLA       0.000000
     21 C0K          3.5400     8.7140     2.3400 c6         1 OLA       0.000000
     22 C0M          4.4860    12.7970     1.1000 c2         1 OLA       0.000000
     23 H0N          5.2260    10.9340     1.5130 ha         1 OLA       0.000000
     24 H0O          4.7640     8.3570     5.2940 h1         1 OLA       0.000000
     25 H0P          3.4200     7.7870     4.7630 h1         1 OLA       0.000000
     26 C0Q          5.0310     6.9040     3.9060 c6         1 OLA       0.000000
     27 H0R          2.6480     8.4630     2.5380 h1         1 OLA       0.000000
     28 H0S          3.5370     9.4260     1.7130 h1         1 OLA       0.000000
     29 C0T          4.2610     7.5320     1.7500 c6         1 OLA       0.000000
     30 C0U          4.9770    13.1520    -0.2790 c3         1 OLA       0.000000
     31 H0V          5.0680     6.1900     4.5380 h1         1 OLA       0.000000
     32 H0W          5.9160     7.1820     3.7010 h1         1 OLA       0.000000
     33 N0X          4.3750     6.4420     2.6970 n3         1 OLA       0.000000
     34 H0Y          3.7870     7.2310     0.9850 h1         1 OLA       0.000000
     35 H0Z          5.1340     7.7990     1.4880 h1         1 OLA       0.000000
     36 H10          4.6360    14.0080    -0.5250 hc         1 OLA       0.000000
     37 H11          5.9210    13.1270    -0.2880 hc         1 OLA       0.000000
     38 H12          4.6710    12.5100    -0.9000 hc         1 OLA       0.000000
     39 C13          5.0950     5.3220     2.0880 c3         1 OLA       0.000000
     40 H14          4.5270     4.8650     1.5000 h1         1 OLA       0.000000
     41 H15          5.8220     5.6530     1.6250 h1         1 OLA       0.000000
     42 H16          5.3710     4.7100     2.7630 h1         1 OLA       0.000000
     43 H00          8.2060     5.2660    -2.8130 ha         2 OLA       0.000000
     44 C01          8.4770     5.3130    -1.9080 ca         2 OLA       0.000000
     45 C02          9.2950     6.3320    -1.4880 ca         2 OLA       0.000000
     46 C03          8.2340     4.2160    -1.0630 ca         2 OLA       0.000000
     47 H04          9.5410     7.0270    -2.0880 ha         2 OLA       0.000000
     48 C05          9.7100     6.3690    -0.1750 ca         2 OLA       0.000000
     49 H06          7.8710     3.4290    -1.4380 ha         2 OLA       0.000000
     50 C07          8.7370     4.1620     0.2380 ca         2 OLA       0.000000
     51 H08         10.0240     7.1820     0.1750 ha         2 OLA       0.000000
     52 C09          9.5190     5.2650     0.6830 ca         2 OLA       0.000000
     53 N0A          8.6490     2.9000     0.9090 n2         2 OLA       0.000000
     54 N0B         10.1440     5.1920     1.9650 na         2 OLA       0.000000
     55 C0C          8.4190     2.7570     2.1850 c2         2 OLA       0.000000
     56 H0D         11.0870     5.2510     2.0630 hn         2 OLA       0.000000
     57 C0E          9.3320     4.9270     3.0770 c2         2 OLA       0.000000
     58 C0F          8.5200     3.8190     3.2380 c2         2 OLA       0.000000
     59 N0G          8.2000     1.4300     2.6830 nh         2 OLA       0.000000
     60 S0H          9.1240     6.0760     4.3820 ss         2 OLA       0.000000
     61 C0I          7.7260     3.9260     4.4380 c2         2 OLA       0.000000
     62 C0J          8.1150     0.3400     1.7290 c6         2 OLA       0.000000
     63 C0K          8.8650     0.9920     3.9110 c6         2 OLA       0.000000
     64 C0M          7.9190     5.0750     5.1510 c2         2 OLA       0.000000
     65 H0N          7.1790     3.2120     4.7380 ha         2 OLA       0.000000
     66 H0O          7.6410     0.6350     0.9580 h1         2 OLA       0.000000
     67 H0P          8.9850     0.0650     1.4880 h1         2 OLA       0.000000
     68 C0Q          7.3740    -0.8190     2.3450 c6         2 OLA       0.000000
     69 H0R          9.7580     0.7410     3.7130 h1         2 OLA       0.000000
     70 H0S          8.8680     1.7030     4.5380 h1         2 OLA       0.000000
     71 C0T          8.1440    -0.1900     4.5010 c6         2 OLA       0.000000
     72 C0U          7.4280     5.4300     6.5300 c3         2 OLA       0.000000
     73 H0V          7.3370    -1.5320     1.7130 h1         2 OLA       0.000000
     74 H0W          6.4890    -0.5410     2.5500 h1         2 OLA       0.000000
     75 N0X          8.0300    -1.2800     3.5540 n3         2 OLA       0.000000
     76 H0Y          8.6190    -0.4910     5.2660 h1         2 OLA       0.000000
     77 H0Z          7.2720     0.0770     4.7630 h1         2 OLA       0.000000
     78 H10          7.7690     6.2860     6.7760 hc         2 OLA       0.000000
     79 H11          6.4840     5.4050     6.5390 hc         2 OLA       0.000000
     80 H12          7.7340     4.7880     7.1510 hc         2 OLA       0.000000
     81 C13          7.3100    -2.4000     4.1630 c3         2 OLA       0.000000
     82 H14          7.8790    -2.8570     4.7510 h1         2 OLA       0.000000
     83 H15          6.5830    -2.0700     4.6260 h1         2 OLA       0.000000
     84 H16          7.0350    -3.0120     3.4880 h1         2 OLA       0.000000
     85 H00          3.3000     2.4560     3.4380 ha         3 OLA       0.000000
     86 C01          3.5710     2.4090     4.3430 ca         3 OLA       0.000000
     87 C02          4.3890     1.3900     4.7630 ca         3 OLA       0.000000
     88 C03          3.3290     3.5060     5.1890 ca         3 OLA       0.000000
     89 H04          4.6350     0.6950     4.1630 ha         3 OLA       0.000000
     90 C05          4.8040     1.3530     6.0760 ca         3 OLA       0.000000
     91 H06          2.9650     4.2930     4.8130 ha         3 OLA       0.000000
     92 C07          3.8310     3.5600     6.4890 ca         3 OLA       0.000000
     93 H08          5.1180     0.5410     6.4260 ha         3 OLA       0.000000
     94 C09          4.6130     2.4570     6.9340 ca         3 OLA       0.000000
     95 N0A          3.7430     4.8220     7.1600 n2         3 OLA       0.000000
     96 N0B          5.2380     2.5300     8.2170 na         3 OLA       0.000000
     97 C0C          3.5130     4.9650     8.4370 c2         3 OLA       0.000000
     98 H0D          6.1810     2.4710     8.3140 hn         3 OLA       0.000000
     99 C0E          4.4260     2.7950     9.3280 c2         3 OLA       0.000000
    100 C0F          3.6150     3.9030     9.4890 c2         3 OLA       0.000000
    101 N0G          3.2940     6.2920     8.9340 nh         3 OLA       0.000000
    102 S0H          4.2190     1.6460    10.6330 ss         3 OLA       0.000000
    103 C0I          2.8200     3.7960    10.6900 c2         3 OLA       0.000000
    104 C0J          3.2090     7.3820     7.9800 c6         3 OLA       0.000000
    105 C0K          3.9590     6.7310    10.1620 c6         3 OLA       0.000000
    106 C0M          3.0140     2.6470    11.4020 c2         3 OLA       0.000000
    107 H0N          2.2730     4.5100    10.9900 ha         3 OLA       0.000000
    108 H0O          2.7350     7.0870     7.2090 h1         3 OLA       0.000000
    109 H0P          4.0790     7.6570     7.7390 h1         3 OLA       0.000000
    110 C0Q          2.4680     8.5410     8.5970 c6         3 OLA       0.000000
    111 H0R          4.8520     6.9810     9.9640 h1         3 OLA       0.000000
    112 H0S          3.9620     6.0190    10.7900 h1         3 OLA       0.000000
    113 C0T          3.2380     7.9120    10.7520 c6         3 OLA       0.000000
    114 C0U          2.5220     2.2920    12.7810 c3         3 OLA       0.000000
    115 H0V          2.4310     9.2540     7.9640 h1         3 OLA       0.000000
    116 H0W          1.5840     8.2630     8.8020 h1         3 OLA       0.000000
    117 N0X          3.1240     9.0020     9.8060 n3         3 OLA       0.000000
    118 H0Y          3.7130     8.2130    11.5170 h1         3 OLA       0.000000
    119 H0Z          2.3660     7.6450    11.0150 h1         3 OLA       0.000000
    120 H10          2.8630     1.4360    13.0280 hc         3 OLA       0.000000
    121 H11          1.5780     2.3170    12.7900 hc         3 OLA       0.000000
    122 H12          2.8290     2.9340    13.4030 hc         3 OLA       0.000000
    123 C13          2.4040    10.1220    10.4150 c3         3 OLA       0.000000
    124 H14          2.9730    10.5790    11.0020 h1         3 OLA       0.000000
    125 H15          1.6770     9.7920    10.8770 h1         3 OLA       0.000000
    126 H16          2.1290    10.7340     9.7390 h1         3 OLA       0.000000
    127 H00         -0.7070    10.1780    15.3150 ha         4 OLA       0.000000
    128 C01         -0.9780    10.1310    14.4100 ca         4 OLA       0.000000
    129 C02         -1.7960     9.1120    13.9900 ca         4 OLA       0.000000
    130 C03         -0.7350    11.2280    13.5650 ca         4 OLA       0.000000
    131 H04         -2.0420     8.4170    14.5900 ha         4 OLA       0.000000
    132 C05         -2.2110     9.0750    12.6770 ca         4 OLA       0.000000
    133 H06         -0.3720    12.0160    13.9400 ha         4 OLA       0.000000
    134 C07         -1.2380    11.2820    12.2650 ca         4 OLA       0.000000
    135 H08         -2.5250     8.2630    12.3270 ha         4 OLA       0.000000
    136 C09         -2.0190    10.1790    11.8200 ca         4 OLA       0.000000
    137 N0A         -1.1500    12.5440    11.5940 n2         4 OLA       0.000000
    138 N0B         -2.6450    10.2520    10.5370 na         4 OLA       0.000000
    139 C0C         -0.9200    12.6870    10.3170 c2         4 OLA       0.000000
    140 H0D         -3.5880    10.1930    10.4400 hn         4 OLA       0.000000
    141 C0E         -1.8320    10.5170     9.4260 c2         4 OLA       0.000000
    142 C0F         -1.0210    11.6250     9.2640 c2         4 OLA       0.000000
    143 N0G         -0.7000    14.0140     9.8190 nh         4 OLA       0.000000
    144 S0H         -1.6250     9.3680     8.1200 ss         4 OLA       0.000000
    145 C0I         -0.2260    11.5180     8.0640 c2         4 OLA       0.000000
    146 C0J         -0.6160    15.1040    10.7730 c6         4 OLA       0.000000
    147 C0K         -1.3660    14.4530     8.5920 c6         4 OLA       0.000000
    148 C0M         -0.4200    10.3690     7.3510 c2         4 OLA       0.000000
    149 H0N          0.3210    12.2320     7.7640 ha         4 OLA       0.000000
    150 H0O         -0.1420    14.8090    11.5450 h1         4 OLA       0.000000
    151 H0P         -1.4860    15.3790    11.0150 h1         4 OLA       0.000000
    152 C0Q          0.1250    16.2630    10.1570 c6         4 OLA       0.000000
    153 H0R         -2.2580    14.7030     8.7890 h1         4 OLA       0.000000
    154 H0S         -1.3680    13.7410     7.9640 h1         4 OLA       0.000000
    155 C0T         -0.6450    15.6340     8.0020 c6         4 OLA       0.000000
    156 C0U          0.0710    10.0140     5.9720 c3         4 OLA       0.000000
    157 H0V          0.1620    16.9760    10.7900 h1         4 OLA       0.000000
    158 H0W          1.0100    15.9850     9.9520 h1         4 OLA       0.000000
    159 N0X         -0.5310    16.7240     8.9480 n3         4 OLA       0.000000
    160 H0Y         -1.1190    15.9350     7.2360 h1         4 OLA       0.000000
    161 H0Z          0.2280    15.3670     7.7390 h1         4 OLA       0.000000
    162 H10         -0.2700     9.1580     5.7260 hc         4 OLA       0.000000
    163 H11          1.0150    10.0390     5.9640 hc         4 OLA       0.000000
    164 H12         -0.2350    10.6560     5.3510 hc         4 OLA       0.000000
    165 C13          0.1900    17.8440     8.3390 c3         4 OLA       0.000000
    166 H14         -0.3790    18.3010     7.7520 h1         4 OLA       0.000000
    167 H15          0.9160    17.5140     7.8770 h1         4 OLA       0.000000
    168 H16          0.4650    18.4560     9.0140 h1         4 OLA       0.000000
@<TRIPOS>BOND
     1     1     2 1   
     2     2     3 1   
     3     2     4 1   
     4     3     5 1   
     5     3     6 1   
     6     4     7 1   
     7     4     8 1   
     8     6     9 1   
     9     6    10 1   
    10     8    10 1   
    11     8    11 1   
    12    10    12 1   
    13    11    13 1   
    14    12    14 1   
    15    12    15 1   
    16    13    16 1   
    17    13    17 1   
    18    15    16 1   
    19    15    18 1   
    20    16    19 1   
    21    17    20 1   
    22    17    21 1   
    23    18    22 1   
    24    19    22 1   
    25    19    23 1   
    26    20    24 1   
    27    20    25 1   
    28    20    26 1   
    29    21    27 1   
    30    21    28 1   
    31    21    29 1   
    32    22    30 1   
    33    26    31 1   
    34    26    32 1   
    35    26    33 1   
    36    29    33 1   
    37    29    34 1   
    38    29    35 1   
    39    30    36 1   
    40    30    37 1   
    41    30    38 1   
    42    33    39 1   
    43    39    40 1   
    44    39    41 1   
    45    39    42 1   
    46    43    44 1   
    47    44    45 1   
    48    44    46 1   
    49    45    47 1   
    50    45    48 1   
    51    46    49 1   
    52    46    50 1   
    53    48    51 1   
    54    48    52 1   
    55    50    52 1   
    56    50    53 1   
    57    52    54 1   
    58    53    55 1   
    59    54    56 1   
    60    54    57 1   
    61    55    58 1   
    62    55    59 1   
    63    57    58 1   
    64    57    60 1   
    65    58    61 1   
    66    59    62 1   
    67    59    63 1   
    68    60    64 1   
    69    61    64 1   
    70    61    65 1   
    71    62    66 1   
    72    62    67 1   
    73    62    68 1   
    74    63    69 1   
    75    63    70 1   
    76    63    71 1   
    77    64    72 1   
    78    68    73 1   
    79    68    74 1   
    80    68    75 1   
    81    71    75 1   
    82    71    76 1   
    83    71    77 1   
    84    72    78 1   
    85    72    79 1   
    86    72    80 1   
    87    75    81 1   
    88    81    82 1   
    89    81    83 1   
    90    81    84 1   
    91    85    86 1   
    92    86    87 1   
    93    86    88 1   
    94    87    89 1   
    95    87    90 1   
    96    88    91 1   
    97    88    92 1   
    98    90    93 1   
    99    90    94 1   
   100    92    94 1   
   101    92    95 1   
   102    94    96 1   
   103    95    97 1   
   104    96    98 1   
   105    96    99 1   
   106    97   100 1   
   107    97   101 1   
   108    99   100 1   
   109    99   102 1   
   110   100   103 1   
   111   101   104 1   
   112   101   105 1   
   113   102   106 1   
   114   103   106 1   
   115   103   107 1   
   116   104   108 1   
   117   104   109 1   
   118   104   110 1   
   119   105   111 1   
   120   105   112 1   
   121   105   113 1   
   122   106   114 1   
   123   110   115 1   
   124   110   116 1   
   125   110   117 1   
   126   113   117 1   
   127   113   118 1   
   128   113   119 1   
   129   114   120 1   
   130   114   121 1   
   131   114   122 1   
   132   117   123 1   
   133   123   124 1   
   134   123   125 1   
   135   123   126 1   
   136   127   128 1   
   137   128   129 1   
   138   128   130 1   
   139   129   131 1   
   140   129   132 1   
   141   130   133 1   
   142   130   134 1   
   143   132   135 1   
   144   132   136 1   
   145   134   136 1   
   146   134   137 1   
   147   136   138 1   
   148   137   139 1   
   149   138   140 1   
   150   138   141 1   
   151   139   142 1   
   152   139   143 1   
   153   141   142 1   
   154   141   144 1   
   155   142   145 1   
   156   143   146 1   
   157   143   147 1   
   158   144   148 1   
   159   145   148 1   
   160   145   149 1   
   161   146   150 1   
   162   146   151 1   
   163   146   152 1   
   164   147   153 1   
   165   147   154 1   
   166   147   155 1   
   167   148   156 1   
   168   152   157 1   
   169   152   158 1   
   170   152   159 1   
   171   155   159 1   
   172   155   160 1   
   173   155   161 1   
   174   156   162 1   
   175   156   163 1   
   176   156   164 1   
   177   159   165 1   
   178   165   166 1   
   179   165   167 1   
   180   165   168 1   
@<TRIPOS>SUBSTRUCTURE
     1 OLA         1 TEMP              0 ****  ****    0 ROOT
