@<TRIPOS>MOLECULE
ETH
9 8 1 0 1
SMALL
USER_CHARGES
@<TRIPOS>ATOM
       1 C1           1.2850    -0.2460    -0.0000 c3            1 ETH       -0.097200
       2 C2          -0.0110     0.5660     0.0000 c3            1 ETH        0.131400
       3 O1          -1.1300    -0.3220     0.0000 oh            1 ETH       -0.602800
       4 H1           2.1390     0.4320    -0.0000 hc            1 ETH        0.044400
       5 H2           1.3200    -0.8740     0.8900 hc            1 ETH        0.044400
       6 H3           1.3200    -0.8740    -0.8900 hc            1 ETH        0.044400
       7 H4          -0.0460     1.1950     0.8900 h1            1 ETH        0.018700
       8 H5          -0.0460     1.1950    -0.8900 h1            1 ETH        0.018700
       9 H6          -1.9250     0.2290     0.0000 ho            1 ETH        0.398000
@<TRIPOS>BOND
       1        1        2 1
       2        1        4 1
       3        1        5 1
       4        1        6 1
       5        2        3 1
       6        2        7 1
       7        2        8 1
       8        3        9 1
@<TRIPOS>SUBSTRUCTURE
       1 ETH             1 RESIDUE    0 **** ROOT      0
