@<TRIPOS>MOLECULE
OLA
42 45 1 0 1
SMALL
USER_CHARGES
@<TRIPOS>ATOM
       1 C1           4.7630    11.4040     1.9320 cc            1 OLA       -0.103800
       2 C2           4.5030    12.5200     1.1960 cd            1 OLA       -0.104400
       3 C3           3.0710    12.3110     3.2440 cd            1 OLA        0.012700
       4 C4           2.8650    12.5750     5.5930 ca            1 OLA       -0.116500
       5 C5           2.6680    13.6890     6.4050 ca            1 OLA       -0.161000
       6 C6           3.2600    13.7710     7.6600 ca            1 OLA       -0.120000
       7 C7           4.0760    12.7330     8.0990 ca            1 OLA       -0.138000
       8 C8           4.2690    11.6190     7.2930 ca            1 OLA       -0.166300
       9 C9           3.6780    11.5060     6.0270 ca            1 OLA        0.385600
      10 C10          3.9770    10.1640     4.0830 cc            1 OLA        0.496400
      11 C11          3.9420    11.2630     3.0980 cc            1 OLA       -0.260500
      12 C12          4.2630     7.8000     4.5310 c6            1 OLA        0.181300
      13 C13          4.9700     6.6010     3.9210 c6            1 OLA        0.165300
      14 C14          4.3290     7.3030     1.7400 c6            1 OLA        0.165300
      15 C15          3.5820     8.4800     2.3350 c6            1 OLA        0.181300
      16 C16          5.1210    12.9550    -0.0900 c3            1 OLA       -0.021800
      17 C17          5.0670     5.0640     2.0930 c3            1 OLA        0.158100
      18 S1           3.2530    13.4710     1.9580 ss            1 OLA       -0.055800
      19 N1           2.2220    12.4910     4.3270 na            1 OLA       -0.143300
      20 N2           3.8440    10.2970     5.3580 nd            1 OLA       -0.447000
      21 N3           4.2240     8.8980     3.5780 nh            1 OLA       -0.740300
      22 N4           4.3590     6.1870     2.6690 n3            1 OLA       -0.732600
      23 H1           5.5250    10.6830     1.6550 ha            1 OLA        0.169000
      24 H2           2.0390    14.5000     6.0430 ha            1 OLA        0.129000
      25 H3           3.0850    14.6420     8.2850 ha            1 OLA        0.133000
      26 H4           4.5480    12.7820     9.0760 ha            1 OLA        0.134000
      27 H5           4.8740    10.7840     7.6310 ha            1 OLA        0.147000
      28 H6           4.7840     8.1370     5.4280 h1            1 OLA        0.055200
      29 H7           3.2410     7.5230     4.8340 h1            1 OLA        0.055200
      30 H8           4.9250     5.7640     4.6280 h1            1 OLA        0.036900
      31 H9           6.0400     6.8560     3.7790 h1            1 OLA        0.036900
      32 H10          3.8230     6.9820     0.8210 h1            1 OLA        0.036900
      33 H11          5.3520     7.6310     1.4610 h1            1 OLA        0.036900
      34 H12          2.5410     8.1780     2.5360 h1            1 OLA        0.055200
      35 H13          3.5610     9.3070     1.6260 h1            1 OLA        0.055200
      36 H14          5.8740    12.2240    -0.3970 hc            1 OLA        0.048400
      37 H15          4.3810    13.0330    -0.8940 hc            1 OLA        0.048400
      38 H16          5.6160    13.9280    -0.0010 hc            1 OLA        0.048400
      39 H17          5.0250     4.2090     2.7760 h1            1 OLA        0.032000
      40 H18          4.5890     4.7670     1.1540 h1            1 OLA        0.032000
      41 H19          6.1310     5.2840     1.8820 h1            1 OLA        0.032000
      42 H20          1.5090    13.1940     4.1940 hn            1 OLA        0.243700
@<TRIPOS>BOND
       1        1        2 2
       2        1       11 1
       3        1       23 1
       4        2       16 1
       5        2       18 1
       6        3       11 2
       7        3       18 1
       8        3       19 1
       9        4        5 ar
      10        4        9 ar
      11        4       19 1
      12        5        6 ar
      13        5       24 1
      14        6        7 ar
      15        6       25 1
      16        7        8 ar
      17        7       26 1
      18        8        9 ar
      19        8       27 1
      20        9       20 1
      21       10       11 1
      22       10       20 2
      23       10       21 1
      24       12       13 1
      25       12       21 1
      26       12       28 1
      27       12       29 1
      28       13       22 1
      29       13       30 1
      30       13       31 1
      31       14       15 1
      32       14       22 1
      33       14       32 1
      34       14       33 1
      35       15       21 1
      36       15       34 1
      37       15       35 1
      38       16       36 1
      39       16       37 1
      40       16       38 1
      41       17       22 1
      42       17       39 1
      43       17       40 1
      44       17       41 1
      45       19       42 1
@<TRIPOS>SUBSTRUCTURE
       1 OLA             1 RESIDUE    0 **** ROOT      0
