@<TRIPOS>MOLECULE
WAT
    3     2     1     0     0
SMALL
No Charge or Current Charge


@<TRIPOS>ATOM
      1 O1          20.0000    20.0000    20.3900 oh         1 WAT       0.000000
      2 H1          20.0000    20.7600    19.8000 ho         1 WAT       0.000000
      3 H2          20.0000    19.2400    19.8000 ho         1 WAT       0.000000
@<TRIPOS>BOND
     1     1     2 1   
     2     1     3 1   
@<TRIPOS>SUBSTRUCTURE
     1 WAT         1 TEMP              0 ****  ****    0 ROOT
